models/2gen_psse/2gen_noRE_v33_mod1.raw
0,   100.00, 33, 0, 1, 60.00     / PSS(R)E-33.11   TUE, FEB 22 2022   9:55
NINE BUS SYSTEM-FIVE-CYCLES FAULT MAG-A-STAT/PSS
POWERFACTORY 14.0.524  DATE: 2/13/2013, TIME: 9:21:33 AM
     1,'BUS 1       ',  24.0000,3,   1,   1,   1,1.04000,   0.0000,1.10000,0.90000,1.10000,0.90000
     2,'BUS 2       ', 230.0000,1,   1,   1,   1,1.03947,  -2.4616,1.10000,0.90000,1.10000,0.90000
     3,'BUS 3       ', 230.0000,1,   1,   1,   1,1.02665,  -6.0958,1.10000,0.90000,1.10000,0.90000
     4,'BUS 4       ',  24.0000,2,   1,   1,   1,1.02000,  -8.8326,1.10000,0.90000,1.10000,0.90000
0 / END OF BUS DATA, BEGIN LOAD DATA
0 / END OF LOAD DATA, BEGIN FIXED SHUNT DATA
0 / END OF FIXED SHUNT DATA, BEGIN GENERATOR DATA
     1,'1 ',    80.608,     2.682,   247.500,  -247.500,1.04000,     0,   555.000, 5.00000E-3, 2.00000E-1, 0.00000E+0, 0.00000E+0,1.00000,1,  100.0,   247.500,     0.000,   1,1.0000
     4,'1 ',   -80.000,    -8.938,   192.000,  -192.000,1.02000,     0,   555.000, 5.00000E-3, 2.00000E-1, 0.00000E+0, 0.00000E+0,1.00000,1,  100.0,   163.200,     0.000,   1,1.0000
0 / END OF GENERATOR DATA, BEGIN BRANCH DATA
     2,     3,'1 ', 1.00000E-2, 8.50000E-2,   0.17600,  398.37,  398.37,  398.37,  0.00000,  0.00000,  0.00000,  0.00000,1,2,   1.00,   1,1.0000
0 / END OF BRANCH DATA, BEGIN TRANSFORMER DATA
     2,     1,     0,'1 ',1,1,1, 0.00000E+0, 0.00000E+0,2,'T1          ',1,   1,1.0000,   0,1.0000,   0,1.0000,   0,1.0000,'            '
 0.00000E+0, 5.76000E-2,   100.00
1.00000,   0.000,   0.000,     0.00,     0.00,     0.00, 0,      0, 1.10000, 0.90000, 1.10000, 0.90000,   2, 0, 0.00000, 0.00000,  0.000
1.00000,   0.000
     3,     4,     0,'1 ',1,1,1, 0.00000E+0, 0.00000E+0,2,'T2          ',1,   1,1.0000,   0,1.0000,   0,1.0000,   0,1.0000,'            '
 0.00000E+0, 6.25000E-2,   100.00
1.00000,   0.000,   0.000,     0.00,     0.00,     0.00, 0,      0, 1.10000, 0.90000, 1.10000, 0.90000,   2, 0, 0.00000, 0.00000,  0.000
1.00000,   0.000
0 / END OF TRANSFORMER DATA, BEGIN AREA DATA
0 / END OF AREA DATA, BEGIN TWO-TERMINAL DC DATA
0 / END OF TWO-TERMINAL DC DATA, BEGIN VSC DC LINE DATA
0 / END OF VSC DC LINE DATA, BEGIN IMPEDANCE CORRECTION DATA
0 / END OF IMPEDANCE CORRECTION DATA, BEGIN MULTI-TERMINAL DC DATA
0 / END OF MULTI-TERMINAL DC DATA, BEGIN MULTI-SECTION LINE DATA
0 / END OF MULTI-SECTION LINE DATA, BEGIN ZONE DATA
0 / END OF ZONE DATA, BEGIN INTER-AREA TRANSFER DATA
0 / END OF INTER-AREA TRANSFER DATA, BEGIN OWNER DATA
0 / END OF OWNER DATA, BEGIN FACTS DEVICE DATA
0 / END OF FACTS DEVICE DATA, BEGIN SWITCHED SHUNT DATA
0 / END OF SWITCHED SHUNT DATA, BEGIN GNE DATA
0 / END OF GNE DATA, BEGIN INDUCTION MACHINE DATA
0 / END OF INDUCTION MACHINE DATA
Q
